tests/data/state_estimation/pandapower/symmetric/distribution_radial_SE/pgm_sym_output.json
{
  "line": [
    {
      "id": 9,
      "energized": 1,
      "loading": 0.010103282633999653,
      "p_from": 66295.87959239526,
      "q_from": 22003.060964539643,
      "i_from": 101.03280353611147,
      "s_from": 69851.83134849521,
      "p_to": -66283.1404705442,
      "q_to": -21998.946298394967,
      "i_to": 101.03282633999653,
      "s_to": 69838.44463386595
    },
    {
      "id": 10,
      "energized": 1,
      "loading": 0.011658469044145626,
      "p_from": 74360.28197602603,
      "q_from": 31105.673359981374,
      "i_from": 116.58469044145626,
      "s_from": 80604.05976582046,
      "p_to": -74344.58322752369,
      "q_to": -31089.566851777665,
      "i_to": 116.58469044145626,
      "s_to": 80583.3619446679
    },
    {
      "id": 11,
      "energized": 1,
      "loading": 0.010103284911407403,
      "p_from": 66283.14047049145,
      "q_from": 21998.946298401614,
      "i_from": 101.03282633992713,
      "s_from": 69838.44463381797,
      "p_to": -66117.16433673918,
      "q_to": -21945.712359783287,
      "i_to": 101.03284911407403,
      "s_to": 69664.1493948625
    },
    {
      "id": 12,
      "energized": 1,
      "loading": 0.011658469044143948,
      "p_from": 74344.58322752145,
      "q_from": 31089.566851752938,
      "i_from": 116.58469044143949,
      "s_from": 80583.3619446563,
      "p_to": -73997.98748136565,
      "q_to": -30972.94757716404,
      "i_to": 116.58469044143949,
      "s_to": 80218.6115119808
    },
    {
      "id": 13,
      "energized": 1,
      "loading": 0.010105538311098087,
      "p_from": 66117.16433673643,
      "q_from": 21945.712359779176,
      "i_from": 101.03284911406838,
      "s_from": 69664.1493948586,
      "p_to": -65550.5128857855,
      "q_to": -21540.163351719195,
      "i_to": 101.05538311098087,
      "s_to": 68998.90127247157
    },
    {
      "id": 14,
      "energized": 1,
      "loading": 0.011661207180581916,
      "p_from": 73997.98748136153,
      "q_from": 30972.947577159666,
      "i_from": 116.58469044143153,
      "s_from": 80218.61151197532,
      "p_to": -70000.9884434643,
      "q_to": -30000.4276036935,
      "i_to": 116.61207180581916,
      "s_to": 76158.80802288385
    }
  ],
  "node": [
    {
      "id": 1,
      "energized": 1,
      "u_pu": 0.9999995701343258,
      "u": 19999.991402686515,
      "u_angle": 0.0
    },
    {
      "id": 2,
      "energized": 1,
      "u_pu": 0.9979178103779814,
      "u": 399.1671241511926,
      "u_angle": -2.6234676803183734
    },
    {
      "id": 3,
      "energized": 1,
      "u_pu": 0.9977263397902452,
      "u": 399.0905359160981,
      "u_angle": -2.623466820049316
    },
    {
      "id": 4,
      "energized": 1,
      "u_pu": 0.9976615611961885,
      "u": 399.0646244784754,
      "u_angle": -2.623576891488441
    },
    {
      "id": 5,
      "energized": 1,
      "u_pu": 0.995236097929346,
      "u": 398.0944391717384,
      "u_angle": -2.623442261482127
    },
    {
      "id": 6,
      "energized": 1,
      "u_pu": 0.9931457718653843,
      "u": 397.2583087461537,
      "u_angle": -2.6232511787205217
    },
    {
      "id": 7,
      "energized": 1,
      "u_pu": 0.9855124239077068,
      "u": 394.2049695630827,
      "u_angle": -2.627108749779101
    },
    {
      "id": 8,
      "energized": 1,
      "u_pu": 0.9426620167248162,
      "u": 377.06480668992646,
      "u_angle": -2.615321249385861
    }
  ],
  "source": [
    {
      "id": 15,
      "energized": 1,
      "p": 140656.16156837702,
      "q": 53990.25365622809,
      "i": 4.349245412727408,
      "s": 150662.21582405202,
      "pf": 0.9335861735409469
    }
  ],
  "sym_load": [
    {
      "id": 18,
      "energized": 1,
      "p": 65550.5128857855,
      "q": 21540.163351719195,
      "i": 101.05538311098087,
      "s": 68998.90127247157,
      "pf": 0.9500225608945766
    },
    {
      "id": 19,
      "energized": 1,
      "p": 70000.9884434643,
      "q": 30000.4276036935,
      "i": 116.61207180581917,
      "s": 76158.80802288385,
      "pf": 0.9191450110725305
    }
  ],
  "sym_power_sensor": [
    {
      "id": 28,
      "energized": 1,
      "p_residual": -0.5295923952569614,
      "q_residual": -0.18096453964153159
    },
    {
      "id": 29,
      "energized": 1,
      "p_residual": 0.5304705441855351,
      "q_residual": 0.1762983949660235
    },
    {
      "id": 30,
      "energized": 1,
      "p_residual": -1.1319760260392053,
      "q_residual": -0.47335998137540414
    },
    {
      "id": 31,
      "energized": 1,
      "p_residual": 1.1332275236947131,
      "q_residual": 0.4668517776668102
    },
    {
      "id": 32,
      "energized": 1,
      "p_residual": -0.5304704914360636,
      "q_residual": -0.17629840161348387
    },
    {
      "id": 33,
      "energized": 1,
      "p_residual": 0.5243367391799536,
      "q_residual": 0.17235978328616897
    },
    {
      "id": 34,
      "energized": 1,
      "p_residual": -1.1332275214603893,
      "q_residual": -0.46685175294006176
    },
    {
      "id": 35,
      "energized": 1,
      "p_residual": 1.1174813656505966,
      "q_residual": 0.4675771640393067
    },
    {
      "id": 36,
      "energized": 1,
      "p_residual": -0.5243367364321516,
      "q_residual": -0.17235977917834377
    },
    {
      "id": 37,
      "energized": 1,
      "p_residual": 0.6128857855114411,
      "q_residual": 0.16335171919637514
    },
    {
      "id": 38,
      "energized": 1,
      "p_residual": -1.1174813615427714,
      "q_residual": -0.4675771596643341
    },
    {
      "id": 39,
      "energized": 1,
      "p_residual": 0.9884434643003814,
      "q_residual": 0.4376036935004046
    },
    {
      "id": 40,
      "energized": 1,
      "p_residual": -0.6420653894043116,
      "q_residual": -0.25879853715951584
    },
    {
      "id": 41,
      "energized": 1,
      "p_residual": 0.6420653893696171,
      "q_residual": 0.2511939777675998
    },
    {
      "id": 42,
      "energized": 1,
      "p_residual": -1.0095029876200368,
      "q_residual": -0.40485769447345943
    },
    {
      "id": 43,
      "energized": 1,
      "p_residual": 1.009502988258415,
      "q_residual": 0.3931305142743091
    }
  ],
  "sym_voltage_sensor": [
    {
      "id": 20,
      "energized": 1,
      "u_residual": -0.0014026865158278667
    },
    {
      "id": 21,
      "energized": 1,
      "u_residual": -0.00712415119257237
    },
    {
      "id": 22,
      "energized": 1,
      "u_residual": -0.0005359160980766831
    },
    {
      "id": 23,
      "energized": 1,
      "u_residual": -0.004624478475401261
    },
    {
      "id": 24,
      "energized": 1,
      "u_residual": -0.004439171738424008
    },
    {
      "id": 25,
      "energized": 1,
      "u_residual": -0.008308746153717905
    },
    {
      "id": 26,
      "energized": 1,
      "u_residual": -0.004969563082735107
    },
    {
      "id": 27,
      "energized": 1,
      "u_residual": -0.004806689926484253
    }
  ],
  "transformer": [
    {
      "id": 16,
      "energized": 1,
      "loading": 0.146273995945684,
      "p_from": 54623.75206538941,
      "q_from": 20967.088798537163,
      "i_from": 1.689027344748536,
      "s_from": 58509.59837827359,
      "p_to": -54623.75206538937,
      "q_to": -20624.75119397777,
      "i_to": 84.4513672374255,
      "s_to": 58387.79539865003
    },
    {
      "id": 17,
      "energized": 1,
      "loading": 0.14627399594568208,
      "p_from": 86032.40950298762,
      "q_from": 33023.16485769448,
      "i_from": 2.6602180679789087,
      "s_from": 92152.6174457797,
      "p_to": -86032.40950298826,
      "q_to": -32483.983130514272,
      "i_to": 133.0109033989448,
      "s_to": 91960.77775287353
    }
  ]
}